23D_ESC_Driver_Corrected
*SPICE Netlist generated by Advanced Sim server on 2023/9/5 19:39:24

*Schematic Netlist:

.SAVE 0


*Selected Circuit Analyses:
.TRAN 2E-8 5E-6 0 2E-8
.OP

.END
